1
    SWAT Dec 23 2016    VER 2016/Rev 664                                                                 0/ 0/   0      0: 0: 0

    General Input/Output section (file.cio):                                        
    2/27/2018 00:00:00 ARCGIS-SWAT interface AV                                     
                                                                                    


       SUB      GIS  MON   AREAkm2  PRECIPmm SNOMELTmm     PETmm      ETmm      SWmm    PERCmm    SURQmm    GW_Qmm    WYLDmm  SYLDt/ha ORGNkg/ha ORGPkg/haNSURQkg/ha SOLPkg/ha SEDPkg/ha
BIGSUB   1        0    1.33925E+01 0.675E+00 0.108E+01 0.000E+00 0.000E+00 0.821E+01 0.122E+01 0.100E-05 0.118E+01 0.202E+01 0.236E-10 0.100E-08 0.100E-08 0.100E-08 0.100E-08 0.200E-08
BIGSUB   2        0    1.66419E+01 0.532E+00 0.133E+01 0.000E+00 0.000E+00 0.852E+01 0.129E+01 0.100E-05 0.125E+01 0.208E+01 0.903E-11 0.100E-08 0.100E-08 0.100E-08 0.100E-08 0.200E-08
BIGSUB   3        0    1.89806E+01 0.102E+01 0.617E+00 0.000E+00 0.000E+00 0.674E+01 0.872E+00 0.100E-05 0.954E+00 0.180E+01 0.779E-11 0.100E-08 0.100E-08 0.100E-08 0.100E-08 0.200E-08
BIGSUB   4        0    1.25375E+00 0.255E+00 0.162E+01 0.000E+00 0.000E+00 0.887E+01 0.137E+01 0.124E-02 0.129E+01 0.206E+01 0.312E-09 0.995E-09 0.995E-09 0.331E-04 0.748E-06 0.199E-08
BIGSUB   5        0    1.15001E+02 0.842E+00 0.862E+00 0.000E+00 0.000E+00 0.771E+01 0.110E+01 0.100E-05 0.110E+01 0.195E+01 0.467E-11 0.100E-08 0.100E-08 0.100E-08 0.100E-08 0.200E-08
BIGSUB   6        0    1.27250E+01 0.542E+00 0.134E+01 0.000E+00 0.000E+00 0.844E+01 0.127E+01 0.300E-02 0.121E+01 0.202E+01 0.143E-05 0.861E-05 0.155E-05 0.111E-03 0.164E-05 0.122E-05
BIGSUB   7        0    1.86950E+01 0.931E+00 0.717E+00 0.000E+00 0.000E+00 0.709E+01 0.957E+00 0.100E-05 0.998E+00 0.185E+01 0.138E-10 0.100E-08 0.100E-08 0.100E-08 0.100E-08 0.200E-08
BIGSUB   8        0    1.92875E+00 0.120E+01 0.000E+00 0.000E+00 0.000E+00 0.390E+01 0.211E+00 0.100E-05 0.516E+00 0.135E+01 0.323E-10 0.100E-08 0.100E-08 0.100E-08 0.100E-08 0.200E-08
BIGSUB   9        0    1.63475E+01 0.118E+01 0.427E+00 0.000E+00 0.000E+00 0.594E+01 0.686E+00 0.100E-05 0.806E+00 0.168E+01 0.788E-11 0.100E-08 0.100E-08 0.100E-08 0.100E-08 0.200E-08
BIGSUB  10        0    1.74906E+01 0.109E+01 0.490E+00 0.000E+00 0.000E+00 0.637E+01 0.788E+00 0.100E-05 0.851E+00 0.171E+01 0.160E-10 0.100E-08 0.100E-08 0.100E-08 0.100E-08 0.200E-08
BIGSUB  11        0    1.61762E+01 0.636E+00 0.119E+01 0.000E+00 0.000E+00 0.875E+01 0.134E+01 0.100E-05 0.125E+01 0.208E+01 0.486E-11 0.100E-08 0.100E-08 0.100E-08 0.100E-08 0.200E-08
BIGSUB  12        0    1.77375E+00 0.441E+00 0.148E+01 0.000E+00 0.000E+00 0.902E+01 0.140E+01 0.467E-02 0.129E+01 0.205E+01 0.900E-10 0.998E-09 0.998E-09 0.164E-03 0.291E-05 0.200E-08
BIGSUB  13        0    1.27889E+02 0.128E+01 0.340E+00 0.000E+00 0.000E+00 0.492E+01 0.350E+00 0.100E-05 0.727E+00 0.165E+01 0.466E-11 0.100E-08 0.100E-08 0.100E-08 0.100E-08 0.200E-08
BIGSUB  14        0    1.66750E+00 0.120E+01 0.000E+00 0.000E+00 0.000E+00 0.396E+01 0.223E+00 0.999E-06 0.526E+00 0.132E+01 0.120E-09 0.999E-09 0.999E-09 0.999E-09 0.999E-09 0.200E-08
BIGSUB  15        0    1.82506E+01 0.101E+01 0.612E+00 0.000E+00 0.000E+00 0.684E+01 0.895E+00 0.100E-05 0.880E+00 0.171E+01 0.727E-11 0.100E-08 0.100E-08 0.100E-08 0.100E-08 0.200E-08
BIGSUB  16        0    1.63606E+01 0.698E+00 0.109E+01 0.000E+00 0.000E+00 0.841E+01 0.126E+01 0.229E-02 0.121E+01 0.201E+01 0.120E-05 0.706E-05 0.130E-05 0.114E-03 0.128E-05 0.961E-06
BIGSUB  17        0    1.18455E+02 0.136E+01 0.426E+00 0.000E+00 0.000E+00 0.164E+03 0.431E+00 0.134E-05 0.684E+00 0.164E+01 0.759E-11 0.100E-08 0.100E-08 0.100E-08 0.100E-08 0.200E-08
BIGSUB  18        0    1.67594E+01 0.874E+00 0.895E+00 0.000E+00 0.000E+00 0.793E+01 0.115E+01 0.108E-02 0.104E+01 0.183E+01 0.117E-05 0.585E-05 0.108E-05 0.458E-04 0.481E-06 0.799E-06
BIGSUB  19        0    1.23581E+01 0.701E+00 0.117E+01 0.000E+00 0.000E+00 0.865E+01 0.132E+01 0.351E-02 0.122E+01 0.202E+01 0.221E-05 0.131E-04 0.240E-05 0.171E-03 0.197E-05 0.179E-05
BIGSUB  20        0    1.67419E+01 0.122E+01 0.268E+00 0.000E+00 0.000E+00 0.547E+01 0.425E+00 0.100E-05 0.624E+00 0.146E+01 0.104E-10 0.100E-08 0.100E-08 0.100E-08 0.100E-08 0.200E-08
BIGSUB  21        0    1.13287E+02 0.118E+01 0.449E+00 0.000E+00 0.000E+00 0.613E+01 0.519E+00 0.100E-05 0.789E+00 0.167E+01 0.677E-11 0.100E-08 0.100E-08 0.100E-08 0.100E-08 0.200E-08
BIGSUB  22        0    1.50269E+01 0.000E+00 0.644E-01 0.000E+00 0.000E+00 0.836E+02 0.260E+00 0.120E-05 0.120E+01 0.211E+01 0.199E-10 0.100E-08 0.100E-08 0.100E-08 0.100E-08 0.200E-08
BIGSUB  23        0    1.60363E+01 0.000E+00 0.111E+00 0.000E+00 0.000E+00 0.103E+03 0.356E+00 0.127E-05 0.156E+01 0.253E+01 0.149E-10 0.100E-08 0.100E-08 0.100E-08 0.100E-08 0.200E-08
